@<TRIPOS>MOLECULE
 Nazare2004_17
61   65    1
SMALL
USER_CHARGES


@<TRIPOS>ATOM
      1 C1          7.6252    4.7373   19.3417 C.3       1 UNK        -0.1792 
      2 C26         8.5387    3.7330   18.6212 C.3       1 UNK         0.0492 
      3 N1          7.7329    2.4439   18.3225 N.4       1 UNK        -0.4600 
      4 C2          8.5300    1.3939   17.5053 C.3       1 UNK         0.0828 
      5 C3          8.7927    1.9563   16.1034 C.3       1 UNK        -0.2072 
      6 C4          9.8084    0.9160   18.2234 C.3       1 UNK        -0.2072 
      7 C5          7.1345    1.8130   19.6011 C.3       1 UNK         0.0492 
      8 C6          6.2400    2.8421   20.3027 C.3       1 UNK        -0.1792 
      9 C7          6.9851    4.1469   20.6123 C.3       1 UNK         0.1590 
     10 N2          6.1225    5.0753   21.3211 N.am      1 UNK        -0.5900 
     11 C8          6.5477    6.1014   22.0727 C.2       1 UNK         0.4905 
     12 O1          7.7308    6.4398   22.1127 O.2       1 UNK        -0.4816 
     13 C9          5.5119    6.6979   22.9043 C.ar      1 UNK         0.0332 
     14 C10         4.3223    6.0934   23.3109 C.ar      1 UNK        -0.2016 
     15 C11         3.6751    6.9521   24.2416 C.ar      1 UNK         0.1064 
     16 C12         4.5326    8.0704   24.4313 C.ar      1 UNK         0.0849 
     17 C13         2.4676    6.8784   24.9521 C.ar      1 UNK        -0.1742 
     18 C14         2.1475    7.9008   25.8426 C.ar      1 UNK        -0.1490 
     19 C15         3.0153    8.9689   26.0470 C.ar      1 UNK        -0.0894 
     20 C16         4.2210    9.0740   25.3571 C.ar      1 UNK        -0.2275 
     21 N3          5.6110    7.9211   23.5653 N.pl3     1 UNK        -0.1054 
     22 C17         6.6753    8.9173   23.3900 C.3       1 UNK        -0.1098 
     23 C18         7.8624    8.7104   24.3042 C.2       1 UNK        -0.0706 
     24 C19         7.9230    8.1321   25.5560 C.2       1 UNK        -0.1582 
     25 S1          9.4486    9.2301   23.7851 S.3       1 UNK        -0.0187 
     26 C20        10.2110    8.4817   25.1687 C.ar      1 UNK         0.0884 
     27 C21         9.2390    7.9528   26.0578 C.ar      1 UNK         0.1240 
     28 C22        11.5846    8.3574   25.4160 C.ar      1 UNK        -0.1887 
     29 C23        11.9908    7.6937   26.5684 C.ar      1 UNK         0.0934 
     30 CL1        13.6731    7.4442   26.8540 Cl        1 UNK        -0.1378 
     31 C24        11.0534    7.2120   27.4766 C.ar      1 UNK        -0.1221 
     32 C25         9.6838    7.3354   27.2376 C.ar      1 UNK        -0.1806 
     33 H1          6.9506    2.7195   17.7451 H         1 UNK         0.3030 
     34 H2          7.7897    3.8782   21.3045 H         1 UNK         0.1038 
     35 H3          8.2007    5.6301   19.5896 H         1 UNK         0.1155 
     36 H4          6.8430    5.0746   18.6611 H         1 UNK         0.1155 
     37 H5          8.8853    4.1217   17.6640 H         1 UNK         0.1253 
     38 H6          9.3883    3.4310   19.2310 H         1 UNK         0.1253 
     39 H7          7.8293    0.5613   17.4112 H         1 UNK         0.1241 
     40 H8          9.0500    1.1504   15.4274 H         1 UNK         0.1009 
     41 H9          7.9141    2.4462   15.6816 H         1 UNK         0.1009 
     42 H10         9.6131    2.6734   16.0900 H         1 UNK         0.1009 
     43 H11        10.2809    0.1054   17.6708 H         1 UNK         0.1009 
     44 H12        10.5519    1.7083   18.3185 H         1 UNK         0.1009 
     45 H13         9.6176    0.5266   19.2215 H         1 UNK         0.1009 
     46 H14         6.5720    0.9410   19.2692 H         1 UNK         0.1253 
     47 H15         7.9721    1.5087   20.2287 H         1 UNK         0.1253 
     48 H16         5.8564    2.4052   21.2257 H         1 UNK         0.1155 
     49 H17         5.3702    3.0504   19.6786 H         1 UNK         0.1155 
     50 H18         5.1317    4.9070   21.2933 H         1 UNK         0.3179 
     51 H19         3.9722    5.1251   22.9880 H         1 UNK         0.1432 
     52 H20         1.7980    6.0421   24.8153 H         1 UNK         0.1385 
     53 H21         1.2186    7.8591   26.3944 H         1 UNK         0.1401 
     54 H22         2.7524    9.7379   26.7593 H         1 UNK         0.1389 
     55 H23         4.8882    9.8936   25.5505 H         1 UNK         0.1385 
     56 H24         6.9905    8.8886   22.3460 H         1 UNK         0.0927 
     57 H25         6.2419    9.9029   23.4988 H         1 UNK         0.0927 
     58 H26         7.0434    7.7737   26.0646 H         1 UNK         0.1293 
     59 H27        12.3085    8.7117   24.7023 H         1 UNK         0.1581 
     60 H28        11.3860    6.7252   28.3816 H         1 UNK         0.1497 
     61 H29         8.9752    6.9368   27.9492 H         1 UNK         0.1376 
@<TRIPOS>BOND
     1    1    9 1    
     2    1    2 1    
     3    1   35 1    
     4    1   36 1    
     5    2    3 1    
     6    2   37 1    
     7    2   38 1    
     8    3   33 1    
     9    3    4 1    
    10    3    7 1    
    11    4    5 1    
    12    4    6 1    
    13    4   39 1    
    14    5   40 1    
    15    5   41 1    
    16    5   42 1    
    17    6   43 1    
    18    6   44 1    
    19    6   45 1    
    20    7    8 1    
    21    7   46 1    
    22    7   47 1    
    23    8    9 1    
    24    8   48 1    
    25    8   49 1    
    26    9   34 1    
    27    9   10 1    
    28   10   11 am   BACKBONE|DICT|INTERRES
    29   10   50 1    
    30   11   12 2    
    31   11   13 1    
    32   13   14 ar   
    33   13   21 ar   
    34   14   15 ar   
    35   14   51 1    
    36   15   16 ar   
    37   15   17 ar   
    38   16   20 ar   
    39   16   21 ar   
    40   17   18 ar   
    41   17   52 1    
    42   18   19 ar   
    43   18   53 1    
    44   19   20 ar   
    45   19   54 1    
    46   20   55 1    
    47   21   22 1    
    48   22   23 1    
    49   22   56 1    
    50   22   57 1    
    51   23   24 2    
    52   23   25 1    
    53   24   27 1    
    54   24   58 1    
    55   25   26 1    
    56   26   27 ar   
    57   26   28 ar   
    58   27   32 ar   
    59   28   29 ar   
    60   28   59 1    
    61   29   30 1    
    62   29   31 ar   
    63   31   32 ar   
    64   31   60 1    
    65   32   61 1    
@<TRIPOS>SUBSTRUCTURE
     1 UNK         1 GROUP             0       ****    0 ROOT    
