@<TRIPOS>MOLECULE
*****
 28 29 0 0 0
SMALL
GASTEIGER

@<TRIPOS>ATOM
      1 C          -2.5706    0.5834    0.8902 C.3     1  LIG1       -0.0528
      2 C          -1.7990   -0.6507    1.3634 C.3     1  LIG1       -0.0528
      3 C          -1.7000   -1.7427    0.2915 C.3     1  LIG1       -0.0491
      4 C          -0.3546   -1.9155   -0.4311 C.3     1  LIG1       -0.0274
      5 C           0.6431   -0.7873   -0.3497 C.ar    1  LIG1       -0.0442
      6 C           1.9388   -1.0791    0.1169 C.ar    1  LIG1       -0.0583
      7 C           2.9048   -0.0820    0.2427 C.ar    1  LIG1       -0.0615
      8 C           2.5957    1.2261   -0.1085 C.ar    1  LIG1       -0.0615
      9 C           1.3237    1.5290   -0.5913 C.ar    1  LIG1       -0.0583
     10 C           0.3365    0.5336   -0.7223 C.ar    1  LIG1       -0.0442
     11 C          -1.0367    0.9496   -1.1954 C.3     1  LIG1       -0.0274
     12 C          -1.8707    1.5551   -0.0656 C.3     1  LIG1       -0.0491
     13 H          -2.8632    1.1602    1.7799 H       1  LIG1        0.0265
     14 H          -3.5164    0.2581    0.4336 H       1  LIG1        0.0265
     15 H          -2.3718   -1.0746    2.1985 H       1  LIG1        0.0265
     16 H          -0.8298   -0.3782    1.7900 H       1  LIG1        0.0265
     17 H          -2.4929   -1.6115   -0.4570 H       1  LIG1        0.0268
     18 H          -1.9344   -2.7073    0.7637 H       1  LIG1        0.0268
     19 H          -0.5408   -2.1329   -1.4908 H       1  LIG1        0.0313
     20 H           0.1077   -2.8304   -0.0382 H       1  LIG1        0.0313
     21 H           2.2030   -2.0956    0.4028 H       1  LIG1        0.0620
     22 H           3.8935   -0.3263    0.6201 H       1  LIG1        0.0618
     23 H           3.3396    2.0101   -0.0030 H       1  LIG1        0.0618
     24 H           1.0954    2.5607   -0.8545 H       1  LIG1        0.0620
     25 H          -1.5660    0.1321   -1.6962 H       1  LIG1        0.0313
     26 H          -0.9036    1.7093   -1.9776 H       1  LIG1        0.0313
     27 H          -1.2569    2.2471    0.5240 H       1  LIG1        0.0268
     28 H          -2.6570    2.1746   -0.5222 H       1  LIG1        0.0268
@<TRIPOS>BOND
     1     1     2    1
     2     1    12    1
     3     2     3    1
     4     3     4    1
     5     4     5    1
     6     5     6   ar
     7     5    10   ar
     8     6     7   ar
     9     7     8   ar
    10     8     9   ar
    11     9    10   ar
    12    10    11    1
    13    11    12    1
    14     1    13    1
    15     1    14    1
    16     2    15    1
    17     2    16    1
    18     3    17    1
    19     3    18    1
    20     4    19    1
    21     4    20    1
    22     6    21    1
    23     7    22    1
    24     8    23    1
    25     9    24    1
    26    11    25    1
    27    11    26    1
    28    12    27    1
    29    12    28    1
