@<TRIPOS>MOLECULE
*****
 24 24 0 0 0
SMALL
GASTEIGER

@<TRIPOS>ATOM
      1 C           0.4548   -2.5084   -0.8337 C.3     1  LIG1       -0.0653
      2 C           1.8354   -2.8014   -1.4026 C.3     1  LIG1       -0.0556
      3 C           2.5448   -1.5114   -1.8236 C.3     1  LIG1       -0.0493
      4 C           3.9297   -1.7521   -2.4385 C.3     1  LIG1       -0.0277
      5 C           4.0086   -2.4004   -3.8048 C.ar    1  LIG1       -0.0474
      6 C           2.9091   -2.5518   -4.6590 C.ar    1  LIG1       -0.0586
      7 C           3.0551   -3.1479   -5.9149 C.ar    1  LIG1       -0.0615
      8 C           4.3060   -3.5823   -6.3436 C.ar    1  LIG1       -0.0617
      9 C           5.4145   -3.4190   -5.5183 C.ar    1  LIG1       -0.0615
     10 C           5.2661   -2.8317   -4.2595 C.ar    1  LIG1       -0.0586
     11 H          -0.0429   -3.4402   -0.5478 H       1  LIG1        0.0230
     12 H          -0.1727   -2.0013   -1.5729 H       1  LIG1        0.0230
     13 H           0.5231   -1.8724    0.0542 H       1  LIG1        0.0230
     14 H           1.7270   -3.4842   -2.2511 H       1  LIG1        0.0263
     15 H           2.4340   -3.3233   -0.6462 H       1  LIG1        0.0263
     16 H           2.6770   -0.8870   -0.9309 H       1  LIG1        0.0268
     17 H           1.9153   -0.9328   -2.5091 H       1  LIG1        0.0268
     18 H           4.5180   -2.3540   -1.7336 H       1  LIG1        0.0313
     19 H           4.4303   -0.7780   -2.5193 H       1  LIG1        0.0313
     20 H           1.9182   -2.2157   -4.3674 H       1  LIG1        0.0620
     21 H           2.1880   -3.2697   -6.5595 H       1  LIG1        0.0618
     22 H           4.4175   -4.0427   -7.3222 H       1  LIG1        0.0618
     23 H           6.3950   -3.7465   -5.8523 H       1  LIG1        0.0618
     24 H           6.1457   -2.7082   -3.6304 H       1  LIG1        0.0620
@<TRIPOS>BOND
     1     5     6   ar
     2     6     7   ar
     3     5    10   ar
     4     9    10   ar
     5     8     9   ar
     6     7     8   ar
     7     1     2    1
     8     2     3    1
     9     3     4    1
    10     4     5    1
    11     1    11    1
    12     1    12    1
    13     1    13    1
    14     2    14    1
    15     2    15    1
    16     3    16    1
    17     3    17    1
    18     4    18    1
    19     4    19    1
    20     6    20    1
    21     7    21    1
    22     8    22    1
    23     9    23    1
    24    10    24    1
