@<TRIPOS>MOLECULE
*****
 49 50 0 0 0
SMALL
GASTEIGER

@<TRIPOS>ATOM
      1 C           2.6529    0.2454    1.6542 C.3     1  LIG1       -0.0438
      2 C           1.8445    0.2929    0.3783 C.2     1  LIG1       -0.0766
      3 C           0.6320    0.8758    0.4053 C.2     1  LIG1       -0.0994
      4 C           2.5277   -0.2735   -0.8758 C.3     1  LIG1       -0.0199
      5 C           1.7524   -0.1086   -2.2043 C.3     1  LIG1       -0.0460
      6 C           0.7079   -1.2032   -2.4640 C.3     1  LIG1       -0.0463
      7 C           1.3151   -2.6308   -2.4070 C.3     1  LIG1       -0.0230
      8 C           0.1992   -3.6946   -2.5715 C.3     1  LIG1       -0.0402
      9 C           0.7275   -5.1257   -2.4640 C.3     1  LIG1        0.0064
     10 C           1.6718   -5.3458   -1.2962 C.2     1  LIG1        0.1339
     11 O           1.7485   -6.4512   -0.7556 O.2     1  LIG1       -0.2974
     12 C           2.6399   -4.2354   -0.9178 C.3     1  LIG1        0.0117
     13 C           1.9733   -2.8405   -0.9804 C.3     1  LIG1       -0.0192
     14 C           3.0366   -1.7348   -0.7231 C.3     1  LIG1       -0.0402
     15 C           0.9485   -2.8097    0.1944 C.3     1  LIG1       -0.0586
     16 C           2.3685   -2.8010   -3.5770 C.3     1  LIG1       -0.0469
     17 C           1.8352   -2.6086   -5.0071 C.3     1  LIG1       -0.0528
     18 C           2.9429   -2.8335   -6.0408 C.3     1  LIG1       -0.0559
     19 C           2.4214   -2.6693   -7.4598 C.3     1  LIG1       -0.0653
     20 H           2.7256   -0.7788    2.0312 H       1  LIG1        0.0274
     21 H           2.2041    0.8509    2.4493 H       1  LIG1        0.0274
     22 H           3.6626    0.6318    1.4828 H       1  LIG1        0.0274
     23 H           0.2201    1.2801    1.3263 H       1  LIG1        0.0534
     24 H           0.0011    0.9767   -0.4702 H       1  LIG1        0.0534
     25 H           3.4284    0.3501   -0.9858 H       1  LIG1        0.0346
     26 H           2.4778   -0.1066   -3.0273 H       1  LIG1        0.0271
     27 H           1.2771    0.8772   -2.2654 H       1  LIG1        0.0271
     28 H           0.2372   -1.0217   -3.4365 H       1  LIG1        0.0271
     29 H          -0.1113   -1.1056   -1.7442 H       1  LIG1        0.0271
     30 H          -0.3229   -3.5744   -3.5274 H       1  LIG1        0.0275
     31 H          -0.5808   -3.5445   -1.8152 H       1  LIG1        0.0275
     32 H           1.2557   -5.4134   -3.3790 H       1  LIG1        0.0342
     33 H          -0.1225   -5.8083   -2.3507 H       1  LIG1        0.0342
     34 H           3.5125   -4.3054   -1.5750 H       1  LIG1        0.0347
     35 H           2.9999   -4.4336    0.1000 H       1  LIG1        0.0347
     36 H           3.4957   -1.8861    0.2611 H       1  LIG1        0.0276
     37 H           3.8706   -1.8692   -1.4241 H       1  LIG1        0.0276
     38 H           0.2915   -3.6853    0.2045 H       1  LIG1        0.0235
     39 H           0.2967   -1.9366    0.1751 H       1  LIG1        0.0235
     40 H           1.4683   -2.8108    1.1600 H       1  LIG1        0.0235
     41 H           2.8216   -3.7965   -3.5371 H       1  LIG1        0.0271
     42 H           3.2049   -2.1086   -3.4413 H       1  LIG1        0.0271
     43 H           1.4388   -1.5966   -5.1356 H       1  LIG1        0.0265
     44 H           1.0212   -3.3117   -5.2095 H       1  LIG1        0.0265
     45 H           3.3606   -3.8406   -5.9272 H       1  LIG1        0.0263
     46 H           3.7590   -2.1214   -5.8723 H       1  LIG1        0.0263
     47 H           1.6268   -3.3920   -7.6715 H       1  LIG1        0.0230
     48 H           3.2284   -2.8312   -8.1813 H       1  LIG1        0.0230
     49 H           2.0213   -1.6627   -7.6171 H       1  LIG1        0.0230
@<TRIPOS>BOND
     1     4     5    1
     2     4    14    1
     3     5     6    1
     4     6     7    1
     5     7     8    1
     6     7    13    1
     7     8     9    1
     8     9    10    1
     9    10    12    1
    10    12    13    1
    11    13    14    1
    12     1     2    1
    13     2     4    1
    14     7    16    1
    15    16    17    1
    16    17    18    1
    17    18    19    1
    18    10    11    2
    19    13    15    1
    20     2     3    2
    21     1    20    1
    22     1    21    1
    23     1    22    1
    24     3    23    1
    25     3    24    1
    26     4    25    1
    27     5    26    1
    28     5    27    1
    29     6    28    1
    30     6    29    1
    31     8    30    1
    32     8    31    1
    33     9    32    1
    34     9    33    1
    35    12    34    1
    36    12    35    1
    37    14    36    1
    38    14    37    1
    39    15    38    1
    40    15    39    1
    41    15    40    1
    42    16    41    1
    43    16    42    1
    44    17    43    1
    45    17    44    1
    46    18    45    1
    47    18    46    1
    48    19    47    1
    49    19    48    1
    50    19    49    1
