@<TRIPOS>MOLECULE
*****
 43 44 0 0 0
SMALL
GASTEIGER

@<TRIPOS>ATOM
      1 C           1.0097    0.5737   -0.7307 C.3     1  LIG1       -0.0438
      2 C           2.2005   -0.2852   -0.3722 C.2     1  LIG1       -0.0766
      3 C           2.5703   -1.2615   -1.2201 C.2     1  LIG1       -0.0994
      4 C           2.9373    0.0946    0.9207 C.3     1  LIG1       -0.0199
      5 C           4.2638   -0.6537    1.1922 C.3     1  LIG1       -0.0460
      6 C           4.0968   -2.0103    1.8902 C.3     1  LIG1       -0.0463
      7 C           3.2835   -1.9081    3.2085 C.3     1  LIG1       -0.0233
      8 C           3.0570   -3.3207    3.8073 C.3     1  LIG1       -0.0402
      9 C           2.2049   -3.2960    5.0768 C.3     1  LIG1        0.0064
     10 C           0.9634   -2.4299    4.9643 C.2     1  LIG1        0.1339
     11 O          -0.0530   -2.7083    5.6043 O.2     1  LIG1       -0.2974
     12 C           1.0514   -1.1266    4.1849 C.3     1  LIG1        0.0117
     13 C           1.8626   -1.2900    2.8776 C.3     1  LIG1       -0.0192
     14 C           2.0382    0.0930    2.1886 C.3     1  LIG1       -0.0402
     15 C           0.9894   -2.1871    1.9482 C.3     1  LIG1       -0.0586
     16 C           4.0843   -1.0285    4.2500 C.3     1  LIG1       -0.0497
     17 C           5.4774   -1.5282    4.6300 C.3     1  LIG1       -0.0648
     18 H           0.1668    0.3694   -0.0640 H       1  LIG1        0.0274
     19 H           0.6638    0.3921   -1.7545 H       1  LIG1        0.0274
     20 H           1.2672    1.6352   -0.6595 H       1  LIG1        0.0274
     21 H           2.0138   -1.4590   -2.1324 H       1  LIG1        0.0534
     22 H           3.4274   -1.9026   -1.0489 H       1  LIG1        0.0534
     23 H           3.2278    1.1439    0.7565 H       1  LIG1        0.0346
     24 H           4.8976   -0.0109    1.8158 H       1  LIG1        0.0271
     25 H           4.8397   -0.7830    0.2684 H       1  LIG1        0.0271
     26 H           5.0886   -2.4351    2.0810 H       1  LIG1        0.0271
     27 H           3.6256   -2.7205    1.2032 H       1  LIG1        0.0271
     28 H           4.0117   -3.8132    4.0243 H       1  LIG1        0.0275
     29 H           2.5752   -3.9711    3.0673 H       1  LIG1        0.0275
     30 H           2.7888   -2.9331    5.9288 H       1  LIG1        0.0342
     31 H           1.8894   -4.3192    5.3103 H       1  LIG1        0.0342
     32 H           1.4793   -0.3640    4.8436 H       1  LIG1        0.0347
     33 H           0.0289   -0.8013    3.9538 H       1  LIG1        0.0347
     34 H           1.0540    0.5225    1.9676 H       1  LIG1        0.0276
     35 H           2.4768    0.7986    2.9060 H       1  LIG1        0.0276
     36 H           0.6333   -3.0931    2.4493 H       1  LIG1        0.0235
     37 H           1.5137   -2.5189    1.0526 H       1  LIG1        0.0235
     38 H           0.0918   -1.6474    1.6226 H       1  LIG1        0.0235
     39 H           3.5244   -0.9307    5.1848 H       1  LIG1        0.0268
     40 H           4.2006   -0.0042    3.8842 H       1  LIG1        0.0268
     41 H           5.4471   -2.5226    5.0826 H       1  LIG1        0.0230
     42 H           5.9188   -0.8511    5.3698 H       1  LIG1        0.0230
     43 H           6.1539   -1.5501    3.7720 H       1  LIG1        0.0230
@<TRIPOS>BOND
     1     4     5    1
     2     4    14    1
     3     5     6    1
     4     6     7    1
     5     7     8    1
     6     7    13    1
     7     8     9    1
     8     9    10    1
     9    10    12    1
    10    12    13    1
    11    13    14    1
    12     1     2    1
    13     2     4    1
    14     7    16    1
    15    16    17    1
    16    10    11    2
    17    13    15    1
    18     2     3    2
    19     1    18    1
    20     1    19    1
    21     1    20    1
    22     3    21    1
    23     3    22    1
    24     4    23    1
    25     5    24    1
    26     5    25    1
    27     6    26    1
    28     6    27    1
    29     8    28    1
    30     8    29    1
    31     9    30    1
    32     9    31    1
    33    12    32    1
    34    12    33    1
    35    14    34    1
    36    14    35    1
    37    15    36    1
    38    15    37    1
    39    15    38    1
    40    16    39    1
    41    16    40    1
    42    17    41    1
    43    17    42    1
    44    17    43    1
