@<TRIPOS>MOLECULE
 Nazare2004_08
55   58    1
SMALL
USER_CHARGES


@<TRIPOS>ATOM
      1 C1          4.3687    9.2131   25.3777 C.ar      1 UNK        -0.2200 
      2 C23         3.2071    9.6082   26.0356 C.ar      1 UNK        -0.0925 
      3 C2          1.9531    9.1694   25.6262 C.ar      1 UNK        -0.1474 
      4 C3          1.8140    8.3258   24.5248 C.ar      1 UNK        -0.1771 
      5 C4          2.9660    7.9016   23.8434 C.ar      1 UNK         0.1034 
      6 C5          4.2419    8.3378   24.2905 C.ar      1 UNK         0.0712 
      7 C6          3.1980    7.0734   22.7100 C.ar      1 UNK        -0.2037 
      8 C7          4.5698    6.9402   22.5333 C.ar      1 UNK         0.0161 
      9 N1          5.2099    7.7593   23.4696 N.pl3     1 UNK        -0.0916 
     10 C8          6.5941    8.0065   23.6322 C.ar      1 UNK        -0.0324 
     11 C9          7.3551    8.5823   22.6083 C.ar      1 UNK        -0.1045 
     12 C10         8.6796    8.9623   22.8574 C.ar      1 UNK        -0.1197 
     13 C11         7.1740    7.7946   24.8857 C.ar      1 UNK        -0.1045 
     14 C12         8.4928    8.1669   25.1310 C.ar      1 UNK        -0.1197 
     15 C13         9.2435    8.7613   24.1209 C.ar      1 UNK         0.1687 
     16 CL1        10.8748    9.2191   24.4436 Cl        1 UNK        -0.2163 
     17 C14         5.1785    6.1356   21.4923 C.2       1 UNK         0.4934 
     18 O1          4.6610    6.0473   20.3794 O.2       1 UNK        -0.4886 
     19 N2          6.2673    5.4334   21.8473 N.am      1 UNK        -0.5801 
     20 C15         6.9739    4.4597   21.0085 C.3       1 UNK         0.1573 
     21 C16         6.1743    3.1790   20.7042 C.3       1 UNK        -0.1790 
     22 C17         6.9938    2.1285   19.9256 C.3       1 UNK         0.0494 
     23 N3          7.5594    2.7484   18.6214 N.4       1 UNK        -0.4600 
     24 C18         8.3962    4.0233   18.8959 C.3       1 UNK         0.0494 
     25 C19         7.5542    5.0385   19.6957 C.3       1 UNK        -0.1790 
     26 C20         8.3170    1.6843   17.7681 C.3       1 UNK         0.0828 
     27 C21         8.5164    2.2060   16.3349 C.3       1 UNK        -0.2072 
     28 C22         9.6415    1.2179   18.4061 C.3       1 UNK        -0.2072 
     29 H1          7.8094    4.1280   21.6245 H         1 UNK         0.1066 
     30 H2          6.7614    3.0389   18.0734 H         1 UNK         0.3027 
     31 H3          5.3318    9.5705   25.7025 H         1 UNK         0.1449 
     32 H4          3.2869   10.2743   26.8827 H         1 UNK         0.1396 
     33 H5          1.0779    9.5014   26.1677 H         1 UNK         0.1402 
     34 H6          0.8346    8.0032   24.2039 H         1 UNK         0.1384 
     35 H7          2.4510    6.5823   22.1034 H         1 UNK         0.1437 
     36 H8          6.9108    8.7732   21.6411 H         1 UNK         0.1523 
     37 H9          9.2723    9.4272   22.0807 H         1 UNK         0.1553 
     38 H10         6.5847    7.3612   25.6776 H         1 UNK         0.1523 
     39 H11         8.9305    7.9995   26.1053 H         1 UNK         0.1553 
     40 H12         6.5167    5.4632   22.8315 H         1 UNK         0.3160 
     41 H13         5.8173    2.7385   21.6356 H         1 UNK         0.1152 
     42 H14         5.2801    3.4351   20.1341 H         1 UNK         0.1152 
     43 H15         6.3786    1.2852   19.6115 H         1 UNK         0.1255 
     44 H16         7.8481    1.7718   20.5001 H         1 UNK         0.1255 
     45 H17         8.6903    4.4194   17.9240 H         1 UNK         0.1255 
     46 H18         9.2756    3.6932   19.4414 H         1 UNK         0.1255 
     47 H19         8.1495    5.9271   19.9039 H         1 UNK         0.1152 
     48 H20         6.7402    5.3871   19.0591 H         1 UNK         0.1152 
     49 H21         7.6165    0.8472   17.7292 H         1 UNK         0.1245 
     50 H22         8.8311    1.4019   15.6697 H         1 UNK         0.1007 
     51 H23         7.5967    2.6193   15.9198 H         1 UNK         0.1007 
     52 H24         9.2813    2.9800   16.2813 H         1 UNK         0.1007 
     53 H25        10.0829    0.4052   17.8297 H         1 UNK         0.1007 
     54 H26        10.3906    2.0098   18.4396 H         1 UNK         0.1007 
     55 H27         9.5127    0.8380   19.4178 H         1 UNK         0.1007 
@<TRIPOS>BOND
     1    1    6 ar   
     2    1    2 ar   
     3    1   31 1    
     4    2    3 ar   
     5    2   32 1    
     6    3    4 ar   
     7    3   33 1    
     8    4    5 ar   
     9    4   34 1    
    10    5    6 ar   
    11    5    7 ar   
    12    6    9 ar   
    13    7    8 ar   
    14    7   35 1    
    15    8    9 ar   
    16    8   17 1    
    17    9   10 1    
    18   10   11 ar   
    19   10   13 ar   
    20   11   12 ar   
    21   11   36 1    
    22   12   15 ar   
    23   12   37 1    
    24   13   14 ar   
    25   13   38 1    
    26   14   15 ar   
    27   14   39 1    
    28   15   16 1    
    29   17   18 2    
    30   17   19 am   BACKBONE|DICT|INTERRES
    31   19   20 1    
    32   19   40 1    
    33   20   29 1    
    34   20   25 1    
    35   20   21 1    
    36   21   22 1    
    37   21   41 1    
    38   21   42 1    
    39   22   23 1    
    40   22   43 1    
    41   22   44 1    
    42   23   30 1    
    43   23   24 1    
    44   23   26 1    
    45   24   25 1    
    46   24   45 1    
    47   24   46 1    
    48   25   47 1    
    49   25   48 1    
    50   26   27 1    
    51   26   28 1    
    52   26   49 1    
    53   27   50 1    
    54   27   51 1    
    55   27   52 1    
    56   28   53 1    
    57   28   54 1    
    58   28   55 1    
@<TRIPOS>SUBSTRUCTURE
     1 UNK         1 GROUP             0       ****    0 ROOT    
