@<TRIPOS>MOLECULE
 Nazare2004_09
59   62    1
SMALL
USER_CHARGES


@<TRIPOS>ATOM
      1 C1         10.6611    8.7228   25.8350 C.3       1 UNK         0.1343 
      2 O1          9.2881    8.3434   25.8157 O.3       1 UNK        -0.3558 
      3 C24         8.5852    8.4067   24.6309 C.ar      1 UNK         0.1673 
      4 C2          7.2920    7.8873   24.6374 C.ar      1 UNK        -0.1324 
      5 C3          9.0810    8.9663   23.4447 C.ar      1 UNK        -0.1894 
      6 C4          8.3051    8.9873   22.2854 C.ar      1 UNK        -0.0973 
      7 C5          7.0111    8.4678   22.3068 C.ar      1 UNK        -0.1644 
      8 C6          6.4954    7.9235   23.4869 C.ar      1 UNK        -0.0015 
      9 N1          5.1399    7.5224   23.5483 N.pl3     1 UNK        -0.0847 
     10 C7          4.4773    6.5863   22.7470 C.ar      1 UNK         0.0179 
     11 C8          3.1327    6.5935   23.0929 C.ar      1 UNK        -0.2069 
     12 C9          2.9507    7.5007   24.1737 C.ar      1 UNK         0.1035 
     13 C10         4.2217    8.0833   24.4335 C.ar      1 UNK         0.0716 
     14 C11         1.8422    7.8931   24.9396 C.ar      1 UNK        -0.1783 
     15 C12         2.0128    8.8650   25.9235 C.ar      1 UNK        -0.1481 
     16 C13         3.2570    9.4422   26.1506 C.ar      1 UNK        -0.0945 
     17 C14         4.3813    9.0674   25.4180 C.ar      1 UNK        -0.2177 
     18 C15         5.0405    5.7939   21.6723 C.2       1 UNK         0.4935 
     19 O2          4.4297    5.6257   20.6174 O.2       1 UNK        -0.4872 
     20 N2          6.2158    5.2044   21.9389 N.am      1 UNK        -0.5803 
     21 C16         6.9517    4.2958   21.0584 C.3       1 UNK         0.1579 
     22 C17         6.2187    2.9778   20.7455 C.3       1 UNK        -0.1791 
     23 C18         7.0705    2.0000   19.9151 C.3       1 UNK         0.0493 
     24 N3          7.5680    2.6846   18.6166 N.4       1 UNK        -0.4599 
     25 C19         8.3368    3.9995   18.9029 C.3       1 UNK         0.0493 
     26 C20         7.4569    4.9434   19.7502 C.3       1 UNK        -0.1791 
     27 C21         8.3604    1.6804   17.7241 C.3       1 UNK         0.0827 
     28 C22         8.5303    2.2533   16.3074 C.3       1 UNK        -0.2071 
     29 C23         9.7035    1.2417   18.3420 C.3       1 UNK        -0.2071 
     30 H1          7.8282    4.0083   21.6387 H         1 UNK         0.1063 
     31 H2          6.7419    2.9415   18.0939 H         1 UNK         0.3027 
     32 H3         11.0607    8.5653   26.8370 H         1 UNK         0.0468 
     33 H4         11.2565    8.1208   25.1470 H         1 UNK         0.0468 
     34 H5         10.7942    9.7777   25.5915 H         1 UNK         0.0468 
     35 H6          6.9077    7.4694   25.5571 H         1 UNK         0.1692 
     36 H7         10.0710    9.3910   23.4045 H         1 UNK         0.1421 
     37 H8          8.7054    9.4276   21.3804 H         1 UNK         0.1392 
     38 H9          6.3977    8.5228   21.4183 H         1 UNK         0.1352 
     39 H10         2.3730    5.9904   22.6172 H         1 UNK         0.1426 
     40 H11         0.8683    7.4620   24.7603 H         1 UNK         0.1375 
     41 H12         1.1675    9.1874   26.5159 H         1 UNK         0.1391 
     42 H13         3.3571   10.1991   26.9159 H         1 UNK         0.1385 
     43 H14         5.3393    9.5252   25.6064 H         1 UNK         0.1456 
     44 H15         6.5416    5.2856   22.8989 H         1 UNK         0.3161 
     45 H16         5.9180    2.4938   21.6751 H         1 UNK         0.1153 
     46 H17         5.2936    3.1906   20.2082 H         1 UNK         0.1153 
     47 H18         6.4933    1.1362   19.5877 H         1 UNK         0.1250 
     48 H19         7.9548    1.6745   20.4604 H         1 UNK         0.1250 
     49 H20         8.5798    4.4367   17.9344 H         1 UNK         0.1250 
     50 H21         9.2501    3.7091   19.4160 H         1 UNK         0.1250 
     51 H22         8.0075    5.8580   19.9714 H         1 UNK         0.1153 
     52 H23         6.6023    5.2623   19.1518 H         1 UNK         0.1153 
     53 H24         7.6913    0.8194   17.6614 H         1 UNK         0.1242 
     54 H25         8.8702    1.4833   15.6151 H         1 UNK         0.1006 
     55 H26         7.5933    2.6453   15.9106 H         1 UNK         0.1006 
     56 H27         9.2657    3.0559   16.2756 H         1 UNK         0.1006 
     57 H28        10.1658    0.4612   17.7392 H         1 UNK         0.1006 
     58 H29        10.4244    2.0581   18.3978 H         1 UNK         0.1006 
     59 H30         9.5977    0.8229   19.3406 H         1 UNK         0.1006 
@<TRIPOS>BOND
     1    1    2 1    
     2    1   32 1    
     3    1   33 1    
     4    1   34 1    
     5    2    3 1    
     6    3    4 ar   
     7    3    5 ar   
     8    4    8 ar   
     9    4   35 1    
    10    5    6 ar   
    11    5   36 1    
    12    6    7 ar   
    13    6   37 1    
    14    7    8 ar   
    15    7   38 1    
    16    8    9 1    
    17    9   13 ar   
    18    9   10 ar   
    19   10   11 ar   
    20   10   18 1    
    21   11   12 ar   
    22   11   39 1    
    23   12   13 ar   
    24   12   14 ar   
    25   13   17 ar   
    26   14   15 ar   
    27   14   40 1    
    28   15   16 ar   
    29   15   41 1    
    30   16   17 ar   
    31   16   42 1    
    32   17   43 1    
    33   18   19 2    
    34   18   20 am   BACKBONE|DICT|INTERRES
    35   20   21 1    
    36   20   44 1    
    37   21   30 1    
    38   21   26 1    
    39   21   22 1    
    40   22   23 1    
    41   22   45 1    
    42   22   46 1    
    43   23   24 1    
    44   23   47 1    
    45   23   48 1    
    46   24   31 1    
    47   24   25 1    
    48   24   27 1    
    49   25   26 1    
    50   25   49 1    
    51   25   50 1    
    52   26   51 1    
    53   26   52 1    
    54   27   28 1    
    55   27   29 1    
    56   27   53 1    
    57   28   54 1    
    58   28   55 1    
    59   28   56 1    
    60   29   57 1    
    61   29   58 1    
    62   29   59 1    
@<TRIPOS>SUBSTRUCTURE
     1 UNK         1 GROUP             0       ****    0 ROOT    
